Abstract
Floating offshore wind turbines (FOWTs) operating in cold marine environments must confront atmospheric icing. The objective of this work is to study the blade icing characteristics in operation and the dynamic response of FOWT after icing. For this purpose, blade icing is simulated under various operating conditions using the IEA Wind 15 MW reference wind turbine as an exemplar. The Computational Fluid Dynamics (CFD) methodology calculates the aerodynamic performance of the icing airfoil. A fully coupled dynamic analysis of the wind turbine is performed in OpenFAST to assess the response of the FOWT after blade icing. The calculation results indicate that the wind turbine’s operating regions significantly impact ice accretion. Blade icing reduces the aerodynamic performance, leading to power generation loss. The maximum lift coefficient at the blade tip decreases by 17.7%. The power generation loss in Region 2 is approximately 6%, and the maximum power loss of 0.87 MW occurs at 11 m
s. Due to different control strategies, the wind turbine response caused by blade icing manifests differently before and after the rated wind speed. When exceeding the rated wind speed, the reduction of pitch angle caused by blade icing, which decreases by 25.6% at 11 m/s, may lead to structural overload. Under imbalanced icing, the power generation of the wind turbine exhibits fluctuations. This study provides a reference for evaluating FOWTs in cold marine environments regarding power generation and safety under atmospheric icing conditions.
Previous article in issue
Next article in issue
Keywords
Floating offshore wind turbineAtmospheric icingRotor aerodynamicsCFDHydrodynamic analysisResponse degradation
1. Introduction
As a promising renewable energy source, the number of wind turbines installed worldwide has increased significantly in recent years. Cold regions have great potential for the development of wind energy because of the higher air density, and the available wind energy is about 10% higher than in other regions (Fortin et al., 2005). According to the statistical data reported by the International Energy Agency (IEA) Wind Task 19 (Jordaens et al., 2018, Karlsson, 2021), the cumulative installed capacity of wind power in cold climates accounts for about 
 of the global installed capacity of wind power. Therefore, many favorable locations for wind farms are in cold regions at high latitudes, such as the North, Barents, Baltic, Beaufort, Bohai, and other seas. However, wind turbines in these regions are vulnerable to extreme weather events such as atmospheric ice in winter (Battisti, 2015a). The dangerous situation caused by atmospheric icing events is a challenge that wind turbine designers and manufacturers must address.
Atmospheric icing is caused by the collision of supercooled water droplets on blades. Depending on varying icing conditions, the types of icing on the blade surface can be classified into glaze, rime, and mixed ice (Heinrich, 1991). Glazed ice usually occurs at relatively warm temperatures (
 to 
) and high liquid water content (LWC). The supercooled water droplets that impact the blade surface do not freeze immediately but move on its surface, and the formed ice is transparent and smooth (Yang et al., 2022). When icing occurs in relatively cold environments (below 
) and low LWC, supercooled water droplets freeze instantly upon impact, resulting in rough, white, and opaque rime ice. Mixed ice is a combination of rime and glaze ice (Han, 2011). The ice accretion process on wind turbines is influenced by multiple meteorological and operational parameters, including but not limited to ambient temperature, wind speed, LWC, droplet median volume diameter (MVD), angle of attack, and icing duration. Ice accretion induces a marked elevation in blade surface roughness, thereby substantially degrading aerodynamic efficiency (Gao et al., 2021). Shin (1996) systematically quantified roughness distribution patterns and morphological features of rime and glaze ice on leading edges while establishing parametric correlations between LWC, temperature, and surface roughness.
Wind tunnel testing is the most widely utilized experimental method for investigating ice accretion phenomena on blade surfaces, enabling the simulation of these processes under precisely controlled environmental conditions. In 1992, Shin and Bond (1992) tested the NASA Lewis Research Center Icing Research Tunnel using a NACA0012 airfoil to verify ice shape reproducibility under controlled conditions. Kraj and Bibeau (2010) simulated the ice accretion on small wind turbine blades through icing wind tunnel experiments. Han et al. (2012) conducted wind tunnel experiments on operational wind turbine blades to simulate the realistic ice accretion process on these blades. Guo et al. (2021) designed and constructed a rotor test stand with two blades of NACA0018 airfoil in the icing wind tunnel to investigate the icing characteristics of straight-bladed vertical axis wind turbines(SB-VAWT). They carried out icing experiments under different tip-speed ratios and rime ice conditions, revealing significant differences in ice distribution between high and low tip-speed ratio conditions. Zhang et al. (2023) conducted experimental tests and mechanistic analysis on blade icing under seawater icing conditions in an icing wind tunnel, and the results showed that an increase in salinity would reduce the icing area and the maximum thickness of ice.
With the advances in computer technology, numerical modeling has been increasingly employed to simulate atmospheric icing. LEWICE, developed by the NASA Glenn Research Center, is a two-dimensional ice accretion simulation code that employs potential flow theory to calculate particle trajectories (Wright, 2008), originally designed for the aviation industry. Shin et al. (1994) simulated ice accretion under varied conditions using a modified LEWICE code, validated outcomes against wind tunnel data, and proposed a new equivalent sand-grain roughness model. Fortin et al. (2004) developed an icing code called CIRAMIL in a cooperation project with the Italian Aerospace Research Center. This code introduces an analytical model to calculate the roughness of the airfoil surface and the remaining, runback, and shedding liquid water mass on the airfoil surface. FENSAP-ICE is a three-dimensional icing simulation software utilizing computational fluid dynamics, designed in a modular manner to solve each flow, impingement, and accretion successively (Beaugendre et al., 2005). Reid et al. (2013) utilized the ice simulation system FENSAP-ICE to conduct ice accretion simulations on the NREL Phase VI rotor and evaluated performance degradation under four distinct icing conditions. Baizhuma et al. (2021) employed a coupled approach combining the sliding mesh technique (SMT) and the multiple reference frame (MRF) method to predict ice accretion and performance degradation on vertical-axis wind turbines.
LEWICE is regarded as a benchmark tool by industry and academia. Since the beginning of development in the 1980s (Macarthur, 1983), the code has been continuously updated and optimized. The simulation results of LEWICE were validated against a large experimental dataset conducted in icing research tunnels (Wright and Rutkowski, 1999). In a large number of academic research and engineering practices, the newly developed icing model often uses the simulation results of LEWICE as the verification standard. It is well-established that the code demonstrates reliable accuracy in predicting rime ice. With the advancement of the wind energy industry, LEWICE has been adapted to predict the atmospheric icing of wind turbine blades. Barber et al. (2011) and Jasinski et al. (1998) employed LEWICE to simulate the ice profile of wind turbines. Han et al. (2012) conducted icing experiments on a scaled NREL Phase VI Rotor model and performed non-dimensionalized comparisons with LEWICE simulated rime ice profiles. The results demonstrated satisfactory agreement and validated the code’s predictive capability.
Blade element momentum (BEM) theory was originally developed by Glauert for helicopter rotor analysis in the 1930s (Glauert, 1983). It combines momentum theory with blade element theory to solve the complex interaction between the turbine and the incoming flow. BEM theory discretizes the blade into independent radial elements and solves the local flow conditions by iterative momentum balance. The Prandtl tip loss model is the most accepted correction and is usually considered a flow model corresponding to a finite number of blades. The strip theory calculation using the Prandtl model is in good agreement with the results obtained by the free wake vortex theory and the test data (Wilson, 1980). BEM theory is widely used in wind turbine modeling due to its adaptability to variable pitch angle, speed and airfoil geometry. Virk et al. (2012) used BEM theory to determine the relative wind speed and angle of attack of selected airfoils at various positions along the blade, and analyzed the differences in icing characteristics from the tip to the root of the blade.
Meanwhile, the multifaceted impacts induced by ice accretion have been extensively documented. Virk et al. (2010) numerically simulated rime ice accretion effects on four wind turbines, revealing that ice accumulation modifies blade geometry and surface roughness, thereby reducing lift coefficients, increasing drag coefficients, and degrading aerodynamic performance. Shu et al. (2018) proposed a steady-state 3D CFD numerical model using Fluent to investigate the impact of ice on the blade aerodynamic performance. The results indicate that the flow separation around the icing blade is more serious at larger wind speed, especially for glaze ice. Barber et al. (2011) integrated experimental and computational methods to investigate the effects of ice accretion on wind turbine performance. Their findings indicated that icing could reduce the power coefficient by up to 22% and decrease annual energy production by 2%. Lamraoui et al. (2014) investigated the relationship between ice accretion and power output through a numerical simulation study. Their results revealed that ice-induced power losses can reach up to 40%, with the primary impact attributed to the blade tip region beyond the radial position of 
. Rissanen et al. (2016) investigated the aerodynamic characteristics and mass imbalance of wind turbine blades under icing conditions using numerical simulations. Their study demonstrated that ice accretion on blades reduces power output and increases vibrations, thereby shortening the system’s operational lifespan. Sheidani et al. (2023) conducted a comprehensive analysis of the wake characteristics and aerodynamics of both clean and iced vertical axis wind turbines using large eddy simulation (LES) for turbulence modeling. The results indicate that ice accretion causes earlier separation of both leading-edge and trailing-edge vortices compared to the clean condition, leading to a significant reduction in the power coefficient. An additional critical concern associated with blade icing is the serious safety hazards triggered by ice shedding from the blades, particularly when wind turbines are installed near public roads, residential areas, and power lines (Dalili et al., 2009).
The analysis and design of wind turbines critically depend on time-domain, fully coupled aero-servo-elastic-hydro simulation tools (Campaña Alonso et al., 2023). Particularly when assessing the structural integrity of offshore wind turbines in cold regions, only through such fully coupled numerical models can high-fidelity prediction of the system’s dynamic response be achieved (Heinonen and Rissanen, 2017). Etemaddar et al. (2014) investigated 8 factors affecting ice accretion using the LEWICE icing code and evaluated power output and structural loads before and after icing through the aeroelastic code HAWC2 for wind turbines. Hu et al. (2017) conducted a case study on the NREL Phase VI wind turbine using FAST v8.15 to examine the load response under both symmetric and asymmetric icing conditions, and found that asymmetric icing increased fatigue damage to the blades and tower by 97.6% and 70.8%, respectively. Chuang et al. (2022) employed a dispersed multi-phase model and melting-solidification model in CFD to simulate three-dimensional ice accretion on rotating blades of the 5 MW wind turbine, and performed a comprehensive analysis for offshore jacket-support wind turbines using FAST.
Previous research on atmospheric icing has focused exclusively on fixed-bottom wind turbines, while the dynamic response of floating offshore wind turbines (FOWTs) after icing remains unexplored. In recent years, FOWT has been recognized as one of the most promising directions for wind energy development, as it enables electricity generation in deep-water offshore areas where vast energy potential can be harnessed (Musial et al., 2016, Commission, 2020). Deploying wind turbines in deep offshore waters has key advantages, including higher wind speeds and improved capacity factors at greater distances from shore. These capacity factors are critical for grids with high renewable energy penetration, as they mitigate wind power intermittency.
FOWTs remain a relatively nascent technology. According to Bento and Fontes (2019), the primary barriers to its commercialization are high costs and technological immaturity. Over the years, upscaling turbine size has been regarded as a key driver for cost reduction. For floating turbines, the benefits of upscaling are even more pronounced than those for land-based counterparts, with direct implications not only for the cost per kilowatt of turbine installation but also for expenses related to floaters, mooring lines, and auxiliary systems (Papi and Bianchini, 2022). Additionally, under maritime operating conditions, operators are exempt from transportation constraints, and the installation of super-large machinery is significantly facilitated. For example, the IEA Wind 15 MW reference wind turbine was collaboratively developed by the National Renewable Energy Laboratory (NREL) and the Technical University of Denmark (DTU) (Gaertner et al., 2020), while the University of Maine (UMaine) designed the VolturnUS-S semi-submersible floating platform to support this wind turbine (Allen et al., 2020), as illustrated in Fig. 1. The trend towards larger wind turbines requires manufacturers to produce longer and lighter blades, resulting in more flexible structures (Salavatidezfouli et al., 2025). With increases in tip speed, hub height, and rotor diameter, the impact of atmospheric icing has introduced greater uncertainty.
Prior studies on wind turbine icing have primarily focused on analyzing individual variables’ impact on ice formation or performance under isolated operating conditions. A holistic analysis of blade icing patterns across operational control zones remains to be carried out (Cao et al., 2022). For large-scale FOWTs, atmospheric icing not only reduces the power generation efficiency and shortens service life but also significantly affects the movement of the wind turbine platform, which must be taken seriously (Zhang et al., 2023). Furthermore, the imbalanced loads caused by blade icing pose additional challenges to the operational safety margins and long-term integrity of floating platforms and mooring systems. In this paper, the study firstly simulates ice accretion along the blade span under operational conditions using BEM theory, and evaluates icing characteristics across wind speed scenarios; a Computational Fluid Dynamics (CFD) method is then applied to calculate aerodynamic parameters of iced airfoils at 10 m/s and assess the impact of ice-induced airfoil profile alterations and surface roughness variations on aerodynamic degradation; the steady-state performance and dynamic responses of an offshore wind turbine post-icing is ultimately predicted within a fully coupled dynamic analysis framework.
Fig. 1
Download: Download high-res image (186KB)
Download: Download full-size image
Fig. 1. IEA Wind 15 MW reference floating wind turbine and its frame of Allen et al. (2020).

The remainder of this paper is structured as follows. Section 2 details the study’s methodology, covering the wind turbine model parameters, blade node selection for icing simulation, theoretical frameworks, simulation tools, and the technical approach of the present study. Section 3 presents the results of blade icing calculation, including the relative wind speed and angle of attack at each node of the blade calculated based on BEM theory, the ice profile, thickness, and mass obtained through icing simulation, and the lift and drag coefficients of the icing airfoil obtained by CFD method. Section 4 demonstrates the response characteristics of the FOWT after icing in the fully coupled dynamic analysis framework, including both the steady-state performance metrics, e.g., power generation, operating status indices, and structural vibration, and the dynamic response, e.g., the fluctuations in power generation, the floating platform’s six-degrees-of-freedom motion, and the mooring system loads. Section 5 summarizes the principal findings and proposes future research prospects on atmospheric icing in FOWTs.
2. Research method
2.1. Wind turbine model and blade node selection
This study selected the IEA Wind 15 MW offshore reference wind turbine as the research object. The wind turbine is an upwind horizontal-axis configuration, and its main parameters are documented in Table 1. From the root to the tip of the blade, the blade geometry employs a combined design of a circular section transitioning to seven airfoils of the DTU FFA-W3 series. Fig. 2 illustrates the specific airfoil profile distribution.
UMaine developed the VolturnUS-S semi-submersible platform to support the IEA Wind 15 MW reference wind turbine. This steel structure platform consists of a central buoyant column attached to the tower and three outer buoyant columns. The central column is connected to the outer columns via three rectangular pontoons and three radial struts attached to the bottom and top of the buoyant columns, respectively. It is anchored at a depth of 200 m by a triple-line catenary mooring system. Each mooring line connects to the fairleads on the platform, evenly distributed along the central column axis. Table 2 lists the key parameters of the floating platform and the mooring system. More detailed specifications are available in Gaertner et al. (2020) and Allen et al. (2020).
Fig. 2
Download: Download high-res image (249KB)
Download: Download full-size image
Fig. 2. Blade geometry and its airfoil distribution.

In the OpenFAST model of the 15 MW reference wind turbine released by the developer, the blade is defined with 50 nodes to describe the geometric and aerodynamic characteristics. In this study, 12 nodes are selected to investigate the differences in icing along the blade span direction. The local radius r, chord length c, and twist angle 
 of the airfoil at each node are shown in Table 3, where 
 denotes the rotor radius. The blade tip represents the area of greatest energy extraction and highest susceptibility to ice accumulation (Burton et al., 2011), which necessitates a higher concentration of nodes in this region.
Table 1. Key parameters of the wind turbine.

Parameter	Value	Units
Rated Power	15	MW
Hub Height	150	m
Hub Diameter	7.94	m
Blade Length	117	m
Root Diameter	5.2	m
Cut-in Wind Speed	3	m/s
Optimized Wind Speed	6.98	m/s
Rated Wind Speed	10.59	m/s
Cut-out Wind Speed	25	m/s
Table 2. Key parameters of the floating platform and the mooring system.

Parameter	Value	Units
Total Draft	20	m
Vertical Center of Gravity from SWL	−14.94	m
Roll Inertia about Center of Gravity	
Pitch Inertia about Center of Gravity	
Yaw Inertia about Center of Gravity	
Platform Mass	17 839	t
Angle Between Adjacent Lines	120	
Fairlead Depth	14	m
Anchor Radial Spacing	837.6	m
Table 3. Definition of airfoil nodes selected in the study.

Node	
Chord 
Twist 
 (°)
17	42.17	34.86	5.17	4.80
21	51.73	42.76	4.66	3.08
25	61.28	50.65	4.21	1.83
29	70.83	58.55	3.80	0.84
33	80.38	66.44	3.43	0.04
37	89.93	74.34	3.07	−1.00
39	94.70	78.29	2.88	−1.62
41	99.48	82.24	2.69	−2.09
43	104.26	86.18	2.49	−2.18
45	109.03	90.13	2.28	−2.10
47	113.81	94.08	2.05	−1.90
49	118.58	98.03	1.82	−1.51
2.2. Blade element momentum theory
Determining the specific ice profiles at each node under operational conditions requires first calculating the relative wind speed (
) and angle of attack (
) at the corresponding airfoil sections. These parameters can be determined iteratively using BEM theory (Manwell et al., 2015, Hansen, 2015).
As shown in Fig. 3, the relative wind speed 
 of the airfoil is the vector sum of the axial velocity 
 and the tangential velocity 
 within the rotor plane, expressed as:
(1)
where 
 represents the incoming wind speed, 
 is the axial induction factor, 
 is the tangential induction factor, and 
 denotes the rotational speed.
Fig. 3
Download: Download high-res image (138KB)
Download: Download full-size image
Fig. 3. Diagram of the velocity triangle and key angles of a blade element.

The angle of attack 
 is the difference between the inflow angle 
 and the section pitch angle 
:
(2)
where the inflow angle of wind 
 is the angle between the plane of blade rotation and the relative wind speed 
, the section pitch angle 
 is the sum of the blade pitch angle 
 and the section twist angle 
, as:
(3)
According to BEM theory, the axial induction factor 
 and tangential induction factor 
 can be derived as follows:
(4)
in which, 
 is the correction coefficient, 
 is the local airfoil lift coefficient, 
 is the local airfoil drag coefficient, and 
 is the local solidity, defined as:
(5)
where 
 represents the number of blades.
The blade tip loss and hub loss corrections are taken into consideration. The Glauert correction (Moriarty and Hansen, 2005) is applied when 
, where 
 is the thrust coefficient. Once the incoming wind speed 
 is determined, the relative wind speed 
 and the angle of attack 
 at each section of the wind turbine blade can be calculated.
2.3. Icing simulation calculation
The LEWINT software used in this study inherits the ice accretion code from LEWICE version 3.2.2, integrated with a user interface, icing analysis tools, and automated plotting capabilities developed by American Kestrel Company. LEWICE is a time-stepping procedure to calculate the shape of an ice accretion, and can be run in two modes: when no heaters are firing and when heaters are engaged. LEWICE employs the Douglas Hess-Smith 2-D panel code (S24Y) to solve potential flow fields (Hess and Smith, 1967). Subsequently, the Lagrangian approach by Frost et al. (1982) was used to evaluate the particle trajectory and impingement characteristics. The distribution of liquid water impinging on the body serves as a critical input for the icing thermodynamic model. The icing thermodynamic model is based on the work of Messinger (Messinger, 1953), but contains several major modifications and improvements (Wright, 2008).
The mass balance equation determines the mass of frozen water at each location by accounting for all relevant mass gains and losses:
(6)
where 
 is mass flux of impinging water, 
 is mass flux of runback water entering a given section, 
 is mass flux of evaporating water, 
 is mass flux of water freezing in a given section, 
 is mass flux of runback water leaving a given section, 
 is mass flux of water shedding in a given section, 
 is mass flux of standing water due to surface tension effects, 
 is surface distance spacing at next location, 
 is surface distance spacing at current location.
The concept of freezing fraction is introduced to represent the proportion of the total mass of liquid entering the control volume that freezes in the control volume, and it can be expressed as (Messinger, 1953):
(7)
The freezing fraction equals 1.0 for rime ice, since all the water entering the control volume freezes within it.
The energy balance equation determines the amount of heat gain and loss from different factors and determines the energy available at each location for freezing the available water, and it can be expressed as follows (Wright, 2008, Messinger, 1953, Masiulaniec and Wright, 1994):
(8)
where 
 is thermal conductivity of body in direction normal to the surface, 
 is temperature at a given location on the body geometry, 
 is direction normal to body surface, 
 is net convective heat loss from body, 
 is evaporative heat loss from surface water, 
 is kinetic heat gain to body from impinging droplets, 
 is latent heat gain to body from freezing, 
 is sensible heat loss (or gain) from surface water.
The net convective heat loss is expressed as:
(9)
where 
 is convective heat loss, 
 is heat gain on surface from frictional heating, 
 is the ratio of the surface area of a bead on the surface with respect to the surface area of the control volume.
(10)
(11)
where 
 is the convective heat transfer coefficient, 
 is the temperature at a given surface location on a body geometry, 
 is the ambient static temperature. 
 is the recovery temperature at a given surface location on a body geometry. The evaporative heat loss is given by:
(12)
where 
 is latent heat of vaporization, 
 is mass transfer coefficient, 
 is molecular weight of water, 
 is molar ideal gas constant, 
 is temperature at the edge of boundary layer, 
 is saturated evaporative pressure at a given surface location on a body geometry, 
 is saturated evaporative pressure at the edge of boundary layer.
The kinetic heat gain from the impinging droplets is defined as
(13)
where 
 is local collection efficiency, 
 is freestream velocity.
The latent heat gain is defined as:
(14)
where 
 is latent heat of fusion.
The sensible heat transfer under rime ice is given by:
(15)
where 
 is specific heat of water, 
 is specific heat of ice, 
 is temperature at previous surface location on a body geometry, 
 is melting point temperature for ice.
Ice density in LEWICE is fixed at a value of 917 kg/m
 unless the supercooled large droplets (SLD) option is actived. By specifying icing time increments, ice growth rates can be interpreted as accreted ice thickness on the substrate, thereby driving iterative updates of the surface geometry through coordinate regeneration. The iterative process recommences with flow field recalculation and continues until the prescribed icing duration is attained.
Ice accretion on wind turbine blades leads to changes in the airfoil’s geometric shape and surface roughness, both of which are critical characteristics to consider in simulations of ice accretion. To account for the progressive change in airfoil geometry during ice accretion, the flow field must be updated promptly within the prescribed icing time. The LEWICE code provides an automatic time-stepping flag. If the flag is enabled, the time step is calculated based on accumulated parameters to maintain the accuracy of program calculations (Wright and Rutkowski, 1999). Accurately predicting surface roughness after icing remains highly challenging and costly due to the complexity of its spatial distribution and morphological patterns. LEWICE employs an empirical roughness model to account for the influence of roughness on ice accretion simulation. Shin, Anderson, and some other researchers (Shin, 1996, Shin et al., 1994, Anderson and Shin, 1997, Bond and Anderson, 2004) conducted a series of groundbreaking studies on the surface roughness of ice accretion. The surface roughness height 
 is expressed as a function related to the freezing fraction at the stagnation point 
, defined as:
(16)
which has been widely applied by LEWICE and other ice prediction codes for maximum roughness height prediction (Han and Palacios, 2017). Local roughness is determined using different freezing fraction definitions, as it is calculated based on the control volume mass and energy balance equations.
The present study focuses on rime ice simulation due to its comparatively straightforward ice formation processes and the enhanced reliability of numerical predictions for its accretion behavior (Hu et al., 2017). The rime ice predictions from LEWICE are validated against experimental data obtained from the Lewis Research Center Ice Wind Tunnel (Shin and Bond, 1992). A NACA0012 airfoil with a 0.5334 m chord is employed. The simulation conditions are set as follows: an angle of attack of 
, an ambient temperature of 
, and an MVD of 
. For case (a), the incoming wind speed 
 is 67.05 m/s, LWC is 
, and the icing duration 
 is 6 min. For case (b), 
 is 102.82 m/s, LWC is 
, and 
 is 7 min. As shown in Fig. 4, the ice shapes predicted by LEWICE agree well with the experimental results.
Subsequently, the ice shape simulated by LEWICE was compared with the FENSAP-ICE predictions from Homola et al. (2012) on the NREL 5 MW wind turbine blade sections. The icing conditions are set as follows: an ambient temperature of 
, an MVD of 
, an LWC of 
 and an icing duration of 60 min. Table 4 provides the operating conditions of two test sections. As shown in Fig. 5, the results indicate that the ice shape size and extent predicted by LEWICE and Homola et al. are relatively close, with the ice shape from LEWICE being slightly more irregular. Based on the foregoing comparison, LEWICE’s prediction of the ice shape proves to be satisfactory.
Fig. 4
Download: Download high-res image (298KB)
Download: Download full-size image
Fig. 4. Comparison of ice shape for the NACA0012 airfoil.

Table 4. Test sections operating condition at 10 m/s.

Section	D	E
Airfoil name	NACA64-A17	NACA64-A17
Local radius 
 (m)	54.25	63
Chord 
 (m)	3.6170	8.5213
Relative wind speed 
 (m/s)	64.14	75.88
Angle of attack 
 (°)	4.430	5.824